
**** 05/10/16 20:59:28 ****** PSpice Lite (October 2012) ****** ID# 10813 ****

 ** Profile: "SCHEMATIC1-frequency_sweep"  [ C:\USERS\SHANE REYNOLDS\GOOGLE DRIVE\OrCAD\ENG471 - Assignment 1\ENG471 - Assignment 1-P


 ****     CIRCUIT DESCRIPTION


******************************************************************************




** Creating circuit file "frequency_sweep.cir" 
** WARNING: THIS AUTOMATICALLY GENERATED FILE MAY BE OVERWRITTEN BY SUBSEQUENT SIMULATIONS

*Libraries: 
* Profile Libraries :
* Local Libraries :
.LIB "../../../eng471 - assignment 1-pspicefiles/eng471 - assignment 1.lib" 
* From [PSPICE NETLIST] section of C:\Users\Shane Reynolds\AppData\Roaming\SPB_Data\cdssetup\OrCAD_PSpice/16.6.0/PSpice.ini file:
.lib "nomd.lib" 

*Analysis directives: 
.AC DEC 100 10 1e5
.OPTIONS ADVCONV
.PROBE64 V(alias(*)) I(alias(*)) W(alias(*)) D(alias(*)) NOISE(alias(*)) 
.INC "..\SCHEMATIC1.net" 



**** INCLUDING SCHEMATIC1.net ****
* source ENG471 - ASSIGNMENT 1
M_M1         N00233 N00245 N00237 N00237 Mbreakn           
R_RD         N00233 N00339  7k TC=0,0 
R_RS         N00565 N00237  10k TC=0,0 
R_R3         GND N00245  145.5k TC=0,0 
R_R1         N00299 N00339  179.5k TC=0,0 
R_Ri         N00264 N00452  2k TC=0,0 
R_RL         GND VOUT  10k TC=0,0 
C_CC2         N00233 VOUT  10u  TC=0,0 
C_CG         GND N00299  100n  TC=0,0 
C_CC1         N00245 N00264  100n  TC=0,0 
C_CS         N00237 GND  10u  TC=0,0 
R_R2         N00245 N00299  175k TC=0,0 
V_Vin         N00452 GND DC 0Vdc AC 1Vac 
V_V2         N00565 GND -10Vdc
V_V3         N00339 GND 10Vdc

**** RESUMING frequency_sweep.cir ****
.END

INFO(ORPSIM-15423): Unable to find index file "eng471 - assignment 1.ind" for library file "eng471 - assignment 1.lib".

INFO(ORPSIM-15422): Making new index file "eng471 - assignment 1.ind" for library file "eng471 - assignment 1.lib".

Index has 1 entries from 1 file(s).

ERROR(ORPSIM-15142): Node N00233 is floating

ERROR(ORPSIM-15142): Node N00245 is floating

ERROR(ORPSIM-15142): Node N00237 is floating

ERROR(ORPSIM-15142): Node N00339 is floating

ERROR(ORPSIM-15142): Node N00565 is floating

ERROR(ORPSIM-15142): Node GND is floating

ERROR(ORPSIM-15142): Node N00299 is floating

ERROR(ORPSIM-15142): Node N00264 is floating

ERROR(ORPSIM-15142): Node N00452 is floating

ERROR(ORPSIM-15142): Node VOUT is floating
